*NODE, NSET=NALL
1, 28.5, 21, 16.5
2, 28.5, 21, 17.5
3, 28.4615706, 21.3901806, 17.5
4, 28.4615706, 21.3901806, 16.5
5, 28.5, -11, 16.5
6, 28.5, -11, 17.5
7, 28.3477591, 21.7653669, 17.5
8, 28.3477591, 21.7653669, 16.5
9, 28.1629392, 22.1111405, 16.5
10, 27.9142136, 22.4142136, 16.5
11, 27.6111405, 22.6629392, 16.5
12, 27.2653669, 22.8477591, 16.5
13, 26.8901806, 22.9615706, 16.5
14, 26.5, 23, 16.5
15, -26.5, 23, 16.5
16, -26.8901806, 22.9615706, 16.5
17, -27.2653669, 22.8477591, 16.5
18, -27.6111405, 22.6629392, 16.5
19, -27.9142136, 22.4142136, 16.5
20, -28.1629392, 22.1111405, 16.5
** ... 33720 like lines cut
*ELEMENT, TYPE=C3D10, ELSET=EALL
12331, 11351, 11330, 2374, 11329, 16268, 22543, 22544, 16267, 16232, 22545
12332, 12308, 4083, 3323, 22503, 22546, 8811, 22547, 22548, 22550, 22549
12333, 2999, 11647, 3000, 11504, 22551, 22552, 10195, 22553, 17149, 22554
12334, 2896, 11657, 22453, 22471, 22555, 22556, 22557, 22558, 22560, 22559
12335, 13099, 4083, 12308, 22503, 22561, 22546, 18658, 22562, 22550, 22548
12336, 3229, 22468, 12202, 22483, 22563, 22564, 22565, 22566, 22568, 22567
12337, 3298, 22467, 12281, 22494, 22569, 22570, 22571, 22572, 22574, 22573
12338, 3032, 3833, 3746, 12739, 10321, 10323, 10315, 22575, 22577, 22576
12339, 12791, 3273, 3790, 22520, 22578, 10815, 22579, 22580, 22582, 22581
12340, 2420, 2716, 22514, 22524, 7517, 22583, 22584, 22585, 22587, 22586
12341, 2401, 2620, 11377, 22481, 7419, 22588, 22589, 22590, 22592, 22591
12342, 3012, 22450, 22453, 22497, 22593, 22594, 22595, 22596, 22598, 22597
12343, 11746, 12721, 4104, 22529, 17925, 22599, 22600, 22601, 22603, 22602
12344, 12308, 3323, 12322, 22459, 22547, 22604, 14638, 22605, 22607, 22606
12345, 12791, 3790, 2452, 22520, 22579, 7676, 22608, 22580, 22581, 22609
12346, 12103, 22456, 4145, 22525, 22610, 22611, 22612, 22613, 22615, 22614
12347, 3826, 22468, 3229, 22483, 22616, 22563, 9102, 22617, 22568, 22566
12348, 12836, 12202, 22468, 22483, 19105, 22564, 22618, 22619, 22567, 22568
12349, 3323, 22459, 12308, 22503, 22607, 22605, 22547, 22549, 22620, 22548
12350, 11647, 3000, 11504, 22516, 22552, 22554, 17149, 22621, 22623, 22622
** ... 16660 like lines cut
*NSET, NSET=FIX
79,
80,
81,
82,
157,
158,
159,
160,
908,
909,
910,
911,
912,
913,
914,
915,
916,
917,
918,
919,
** ... 300 like lines cut
*MATERIAL, NAME=MAT
*ELASTIC
3500, 0.36
*SOLID SECTION, ELSET=EALL, MATERIAL=MAT
*STEP, NLGEOM, INC=400
*STATIC
0.05, 1, 1e-06, 0.1
*BOUNDARY
FIX, 1, 3, 0.0
*CLOAD
848, 1, -0.00520254158
848, 2, -0.00198894824
848, 3, 0.0245112538
849, 1, -0.00519901713
849, 2, -0.00198760084
849, 3, 0.0244946487
850, 1, -0.00519901713
850, 2, -0.00198760084
850, 3, 0.0244946487
851, 1, -0.00519901713
851, 2, -0.00198760084
851, 3, 0.0244946487
852, 1, -0.00519913085
852, 2, -0.00198764431
852, 3, 0.0244951845
853, 1, -0.00519961443
853, 2, -0.00198782919
853, 3, 0.0244974629
854, 1, -0.00519913085
854, 2, -0.00198764431
** ... 1240 like lines cut
*NODE FILE
U
*EL FILE
S
*END STEP
