*NODE, NSET=NALL
1, 35.31, 36.663, -13.342
2, 44, 36.663, -13.342
3, 35.31, 33.822, -13.342
4, 64.69, 33.822, -13.342
5, 64.69, 36.663, -13.342
6, 56, 36.663, -13.342
7, 56, 35.263, -13.342
8, 44, 35.263, -13.342
9, 56, 35.263, -14.64
10, 56, 36.663, -14.64
11, 44, 35.263, -14.64
12, 44, 36.663, -14.64
13, 64.69, 30.0485957, -1.66420546
14, 64.69, 29.7352138, -1.15062702
15, 64.69, 29.3891082, -0.658507186
16, 64.69, 29.0117431, -0.189927867
17, 64.69, 28.6047148, 0.253128621
18, 64.69, 28.1697455, 0.668787933
19, 64.69, 27.7086751, 1.05529163
20, 64.69, 27.2234542, 1.41100461
** ... 36699 like lines cut
*ELEMENT, TYPE=C3D10, ELSET=EALL
11650, 13535, 19280, 13526, 19429, 19942, 19943, 13673, 19944, 19946, 19945
11651, 12141, 19156, 19132, 19542, 19947, 19948, 19949, 19950, 19952, 19951
11652, 18900, 18976, 19214, 19365, 19953, 19954, 19955, 19956, 19958, 19957
11653, 2644, 19180, 18940, 19280, 19959, 19960, 19961, 19962, 19964, 19963
11654, 15450, 15452, 8475, 1631, 17376, 19965, 19966, 19967, 19968, 8595
11655, 15538, 19025, 19065, 19246, 19969, 19970, 19971, 19972, 19974, 19973
11656, 1631, 8475, 15450, 1630, 8595, 19966, 19967, 1650, 8596, 19975
11657, 14201, 7752, 14012, 19148, 19976, 19977, 14753, 19978, 19980, 19979
11658, 18896, 19484, 19102, 19537, 19981, 19982, 19983, 19984, 19986, 19985
11659, 15307, 19045, 19025, 19246, 19987, 19988, 19989, 19990, 19991, 19974
11660, 9308, 9320, 9319, 19070, 10160, 10159, 10158, 19992, 19994, 19993
11661, 18882, 18999, 18967, 19003, 19995, 19996, 19997, 19998, 20000, 19999
11662, 3650, 19165, 3653, 19166, 20001, 20002, 4848, 20003, 20005, 20004
11663, 15530, 15222, 18946, 19236, 16457, 20006, 20007, 20008, 20010, 20009
11664, 9314, 18963, 9327, 19193, 20011, 20012, 10188, 20013, 20015, 20014
11665, 15450, 15452, 15449, 8475, 17376, 15744, 17372, 19966, 19965, 20016
11666, 8475, 15449, 15450, 1630, 20016, 17372, 19966, 8596, 20017, 19975
11667, 13526, 19280, 2948, 19429, 19943, 20018, 20019, 19945, 19946, 20020
11668, 15538, 19025, 15362, 19065, 19969, 20021, 16894, 19971, 19970, 20022
11669, 12271, 19015, 12262, 19076, 20023, 20024, 12956, 20025, 20027, 20026
** ... 20426 like lines cut
*NSET, NSET=FIX
92,
173,
349,
350,
680,
681,
682,
683,
684,
685,
686,
687,
688,
689,
690,
691,
692,
693,
694,
695,
** ... 434 like lines cut
*MATERIAL, NAME=MAT
*ELASTIC
200000, 0.3
*SOLID SECTION, ELSET=EALL, MATERIAL=MAT
*STEP
*STATIC
*BOUNDARY
FIX, 1, 3, 0.0
*CLOAD
2593, 1, -0.0207767863
2593, 2, 0.00225612632
2593, 3, 0.0454640325
2594, 1, -0.0208513137
2594, 2, 0.00226421916
2594, 3, 0.0456271144
2595, 1, -0.0208413681
2595, 2, 0.00226313918
2595, 3, 0.0456053512
2596, 1, -0.0206931408
2596, 2, 0.00224704336
2596, 3, 0.0452809984
2597, 1, -0.020668471
2597, 2, 0.00224436449
2597, 3, 0.0452270157
2598, 1, -0.0208010802
2598, 2, 0.00225876436
2598, 3, 0.0455171928
2599, 1, -0.0207366024
2599, 2, 0.0022517628
** ... 1768 like lines cut
*NODE FILE
U
*EL FILE
S
*END STEP
