*NODE, NSET=NALL
1, 35.31, 36.663, -13.342
2, 44, 36.663, -13.342
3, 35.31, 33.822, -13.342
4, 64.69, 33.822, -13.342
5, 64.69, 36.663, -13.342
6, 56, 36.663, -13.342
7, 56, 35.263, -13.342
8, 44, 35.263, -13.342
9, 56, 35.263, -14.64
10, 56, 36.663, -14.64
11, 44, 35.263, -14.64
12, 44, 36.663, -14.64
13, 64.69, 30.0485957, -1.66420546
14, 64.69, 29.7352138, -1.15062702
15, 64.69, 29.3891082, -0.658507186
16, 64.69, 29.0117431, -0.189927867
17, 64.69, 28.6047148, 0.253128621
18, 64.69, 28.1697455, 0.668787933
19, 64.69, 27.7086751, 1.05529163
20, 64.69, 27.2234542, 1.41100461
** ... 8423 like lines cut
*ELEMENT, TYPE=C3D10, ELSET=EALL
3994, 325, 246, 326, 5463, 4320, 1245, 1163, 5484, 5486, 5485
3995, 1725, 1754, 1616, 5414, 2211, 1910, 2209, 5487, 5489, 5488
3996, 2572, 5387, 2601, 5403, 5490, 5491, 3027, 5492, 5494, 5493
3997, 5394, 5417, 108, 5438, 5495, 5496, 5497, 5498, 5500, 5499
3998, 2572, 5399, 5387, 5403, 5501, 5502, 5490, 5492, 5503, 5494
3999, 5399, 5421, 5404, 5455, 5504, 5505, 5506, 5507, 5509, 5508
4000, 1085, 4876, 1418, 1419, 5510, 4910, 4850, 4864, 4914, 1426
4001, 1745, 1663, 1731, 5421, 2415, 2392, 2323, 5511, 5513, 5512
4002, 1698, 1606, 5435, 5453, 2159, 5514, 5515, 5516, 5518, 5517
4003, 3256, 3257, 824, 2578, 3274, 3286, 3287, 5519, 5521, 5520
4004, 1626, 1722, 1682, 5397, 1919, 2248, 2247, 5522, 5524, 5523
4005, 1658, 1619, 1620, 5391, 2223, 1951, 2224, 5525, 5527, 5526
4006, 239, 240, 319, 5402, 1044, 4332, 1259, 5528, 5530, 5529
4007, 1745, 1731, 5399, 5421, 2323, 5531, 5532, 5511, 5512, 5504
4008, 5431, 5435, 5392, 5453, 5533, 5534, 5535, 5536, 5517, 5537
4009, 1684, 1758, 5431, 5435, 2464, 5538, 5539, 5540, 5541, 5533
4010, 1684, 1714, 1758, 5435, 2462, 2183, 2464, 5540, 5542, 5541
4011, 5417, 5431, 1758, 5435, 5543, 5538, 5544, 5545, 5533, 5541
4012, 3952, 3949, 3948, 5457, 4254, 4070, 4255, 5546, 5548, 5547
4013, 3420, 5398, 5394, 5438, 5549, 5550, 5551, 5552, 5553, 5498
** ... 4196 like lines cut
*NSET, NSET=FIX
270,
271,
272,
278,
349,
350,
351,
364,
366,
367,
1078,
1079,
1080,
1081,
1082,
1083,
1084,
1085,
1086,
1087,
** ... 256 like lines cut
*MATERIAL, NAME=MAT
*ELASTIC
2300, 0.35
*SOLID SECTION, ELSET=EALL, MATERIAL=MAT
*STEP
*STATIC
*BOUNDARY
FIX, 1, 3, 0.0
*CLOAD
532, 3, -0.0637749718
533, 3, -0.103202086
535, 3, -0.119617651
536, 3, -0.0679759805
550, 3, -0.0626701588
551, 3, -0.0636227939
552, 3, -0.0614194941
553, 3, -0.0589154559
560, 3, -0.261616547
561, 3, -0.291379487
562, 3, -0.339878107
563, 3, -0.211571984
564, 3, -0.289866932
565, 3, -0.264442516
566, 3, -0.262533588
573, 3, -0.0604364429
574, 3, -0.0566770514
575, 3, -0.0625366204
576, 3, -0.0643850608
587, 3, -0.0302141061
** ... 499 like lines cut
*NODE FILE
U
*EL FILE
S
*END STEP
