*NODE, NSET=NALL
1, 28.5569594, -18.9740938, -9.5
2, 28.5569594, -18.9740938, 9.5
3, 28, -19, 9.5
4, 28, -19, -9.5
5, 29.1091091, -18.8965988, -9.5
6, 29.1091091, -18.8965988, 9.5
7, 29.6516813, -18.7681842, -9.5
8, 29.6516813, -18.7681842, 9.5
9, 30.1799905, -18.589959, -9.5
10, 30.1799905, -18.589959, 9.5
11, 30.6894746, -18.3634621, -9.5
12, 30.6894746, -18.3634621, 9.5
13, 31.175734, -18.0906496, -9.5
14, 31.175734, -18.0906496, 9.5
15, 31.6345696, -17.7738772, -9.5
16, 31.6345696, -17.7738772, 9.5
17, 32.0620192, -17.4158804, -9.5
18, 32.0620192, -17.4158804, 9.5
19, 32.4543916, -17.0197507, -9.5
20, 32.4543916, -17.0197507, 9.5
** ... 10753 like lines cut
*ELEMENT, TYPE=C3D10, ELSET=EALL
4965, 3713, 3683, 3650, 6842, 3891, 3890, 3805, 6905, 6907, 6906
4966, 2857, 3286, 3277, 3293, 6908, 3346, 6909, 6910, 3348, 3347
4967, 1800, 1952, 5364, 6903, 6911, 5379, 6912, 6913, 6915, 6914
4968, 3292, 3291, 3279, 3282, 3358, 3355, 3356, 3341, 3352, 6916
4969, 3291, 3285, 2859, 3278, 3354, 6917, 6918, 3353, 3351, 6919
4970, 5789, 5592, 5795, 5617, 6920, 6921, 5844, 6922, 5685, 6923
4971, 5593, 5965, 5969, 5618, 6924, 6038, 6925, 5663, 6927, 6926
4972, 5355, 5357, 5356, 6887, 5385, 5415, 5425, 6928, 6930, 6929
4973, 6455, 6454, 6452, 6885, 6769, 6768, 6770, 6931, 6933, 6932
4974, 3202, 3195, 3362, 1056, 3223, 6934, 6935, 6936, 6938, 6937
4975, 6043, 5798, 5791, 5797, 6939, 5845, 6940, 6941, 5864, 5849
4976, 5362, 5359, 4541, 6851, 5419, 6942, 6943, 6944, 6946, 6945
4977, 3364, 3500, 3494, 3496, 6947, 3538, 6948, 6949, 3568, 3567
4978, 94, 801, 3415, 3404, 811, 6950, 6951, 6952, 6953, 3432
4979, 4681, 6884, 6865, 6896, 6954, 6955, 6956, 6957, 6959, 6958
4980, 1190, 1405, 1222, 138, 6960, 4241, 4027, 4026, 1406, 1223
4981, 135, 1300, 160, 1285, 6961, 1302, 4017, 4016, 4220, 1287
4982, 1305, 1195, 158, 1282, 6962, 4071, 1306, 4221, 4072, 1283
4983, 140, 1400, 1225, 1191, 1402, 4240, 1227, 4031, 6963, 4030
4984, 1270, 1325, 154, 1194, 4225, 1326, 1271, 4063, 6964, 4062
** ... 5463 like lines cut
*NSET, NSET=FIX
238,
281,
336,
357,
362,
1577,
1582,
1583,
1589,
1729,
1735,
1752,
1753,
1759,
1950,
1951,
1952,
1957,
1958,
1960,
** ... 347 like lines cut
*MATERIAL, NAME=MAT
*ELASTIC
3500, 0.36
*SOLID SECTION, ELSET=EALL, MATERIAL=MAT
*STEP
*STATIC
*BOUNDARY
FIX, 1, 3, 0.0
*CLOAD
969, 3, -0.0424700303
970, 3, -0.0390450012
981, 3, -0.036741427
987, 3, -0.0467537741
994, 3, -0.135196515
995, 3, -0.139365205
996, 3, -0.171855505
997, 3, -0.144864978
998, 3, -0.171888785
999, 3, -0.14514803
1000, 3, -0.134584685
1009, 3, -0.0407291978
1010, 3, -0.0418771023
1011, 3, -0.0420338764
1024, 3, -0.0401083404
1025, 3, -0.0415242295
1034, 3, -0.122413269
1040, 3, -0.122959816
1052, 3, -0.0523561315
1053, 3, -0.116786684
** ... 235 like lines cut
*NODE FILE
U
*EL FILE
S
*END STEP
